Version 4
SHEET 1 1504 680
WIRE 192 -64 192 -96
WIRE 192 -64 32 -64
WIRE 256 -64 192 -64
WIRE 256 -16 256 -64
WIRE 768 -16 656 -16
WIRE 1120 -16 896 -16
WIRE 256 96 256 64
WIRE 384 96 384 64
WIRE 384 96 256 96
WIRE 32 112 32 -64
WIRE 256 128 256 96
WIRE 384 144 384 96
WIRE 656 144 656 -16
WIRE 32 256 32 192
WIRE 256 256 256 208
WIRE 384 256 384 208
WIRE 656 256 656 224
FLAG 32 256 0
FLAG 256 256 0
FLAG 384 64 VCC2
FLAG 192 -96 VCC
FLAG 384 256 0
FLAG 656 256 0
SYMBOL voltage 32 96 R0
WINDOW 123 0 0 Left 0
WINDOW 39 0 0 Left 0
SYMATTR InstName V1
SYMATTR Value 5
SYMBOL res 240 -32 R0
SYMATTR InstName R1
SYMATTR Value 47
SYMBOL res 240 112 R0
SYMATTR InstName R2
SYMATTR Value 4.7k
SYMBOL cap 368 144 R0
SYMATTR InstName C1
SYMATTR Value 470µ
SYMBOL Misc\\signal 656 128 R0
WINDOW 123 0 0 Left 0
WINDOW 39 0 0 Left 0
SYMATTR InstName V2
SYMATTR Value PULSE(0 5 0 0.1 0 0 0.1)
SYMBOL custom\\MCP4801 832 -16 R0
SYMATTR SpiceLine2 Vcc=5 States=8
SYMATTR InstName U1
TEXT 0 280 Left 2 !.tran 1
