Version 4
SHEET 1 1504 680
WIRE -144 -512 -144 -560
WIRE 176 -512 -16 -512
WIRE 64 -448 64 -560
WIRE -16 -432 -16 -512
WIRE 32 -432 -16 -432
WIRE 176 -416 176 -512
WIRE 176 -416 96 -416
WIRE 240 -416 176 -416
WIRE -144 -400 -144 -432
WIRE 32 -400 -144 -400
WIRE -144 -352 -144 -400
WIRE 64 -352 64 -384
WIRE 912 -304 832 -304
WIRE 832 -288 832 -304
WIRE 832 -288 768 -288
WIRE 1264 -288 1024 -288
WIRE 832 -272 832 -288
WIRE 912 -272 832 -272
WIRE -144 -208 -144 -272
WIRE 912 -128 864 -128
WIRE 512 -112 384 -112
WIRE 768 -112 768 -288
WIRE 768 -112 640 -112
WIRE 864 -112 864 -128
WIRE 864 -112 768 -112
WIRE 1136 -112 1024 -112
WIRE 864 -96 864 -112
WIRE 912 -96 864 -96
WIRE 1136 -64 1136 -112
WIRE 1264 -64 1264 -288
WIRE 384 48 384 -112
WIRE -208 112 -208 16
WIRE 32 112 32 16
WIRE 1136 112 1136 16
WIRE 1264 112 1264 16
WIRE 384 160 384 128
WIRE -208 256 -208 192
WIRE 32 256 32 192
FLAG 32 256 0
FLAG 240 -416 VCC2
FLAG 32 16 VCC
FLAG 384 160 0
FLAG -208 256 0
FLAG -208 16 15V
FLAG 64 -352 0
FLAG 64 -560 15V
FLAG -144 -208 0
FLAG -144 -560 VCC
FLAG 1136 112 0
FLAG 1264 112 0
SYMBOL voltage 32 96 R0
WINDOW 123 0 0 Left 0
WINDOW 39 0 0 Left 0
SYMATTR InstName V1
SYMATTR Value 5
SYMBOL Misc\\signal 384 32 R0
WINDOW 123 0 0 Left 0
WINDOW 39 0 0 Left 0
SYMATTR InstName V2
SYMATTR Value PULSE(0 5 0 0.1 0 0 0.1)
SYMBOL custom\\MCP4801 576 -112 R0
SYMATTR InstName U1
SYMBOL voltage -208 96 R0
SYMATTR InstName V3
SYMATTR Value 15
SYMBOL OpAmps\\LT1677 64 -480 R0
SYMATTR InstName U2
SYMBOL res -160 -528 R0
SYMATTR InstName RP1_a
SYMATTR Value 100
SYMBOL res -160 -368 R0
SYMATTR InstName RP1_b
SYMATTR Value 10k
SYMBOL res 1120 -80 R0
SYMATTR InstName R1
SYMATTR Value 10k
SYMBOL 74HC\\74hc00 960 -176 R0
WINDOW 39 -98 125 Left 0
SYMATTR InstName U3
SYMBOL 74HC\\74hc00 960 -352 R0
WINDOW 39 -87 125 Left 0
SYMATTR InstName U4
SYMATTR SpiceLine VCC=4.95  SPEED=1.0  TRIPDT=1e-9
SYMBOL res 1248 -80 R0
SYMATTR InstName R2
SYMATTR Value 10k
TEXT -120 320 Left 2 !.tran 0.25
TEXT 608 -472 Left 2 !.lib 74HC.lib
