* MCP4801

.subckt MCP4801 In Out

Ri In 0 {Ri}
E1 Out 0 value={round(V(In,0)/(Vcc / States)) * Vcc / States}

.ends MCP4801