Version 4
SHEET 1 1012 680
WIRE 672 112 544 112
WIRE 896 128 896 64
WIRE 608 144 608 64
WIRE 544 160 544 112
WIRE 576 160 544 160
WIRE 672 176 672 112
WIRE 672 176 640 176
WIRE 720 176 672 176
WIRE 832 176 800 176
WIRE 80 192 -16 192
WIRE 288 192 288 176
WIRE 288 192 208 192
WIRE 352 192 288 192
WIRE 512 192 432 192
WIRE 576 192 512 192
WIRE 512 240 512 192
WIRE 896 240 896 224
WIRE -224 256 -224 192
WIRE -16 256 -16 192
WIRE 608 256 608 208
WIRE 512 352 512 304
WIRE 896 352 896 320
WIRE -224 416 -224 336
WIRE -16 416 -16 336
FLAG -16 416 0
FLAG 288 176 Dac_Out
FLAG 896 352 0
FLAG -224 192 5V
FLAG -224 416 0
FLAG 512 352 0
FLAG 608 64 5V
FLAG 608 256 0
FLAG 896 64 5V
SYMBOL Misc\\signal -16 240 R0
WINDOW 123 0 0 Left 0
WINDOW 39 0 0 Left 0
SYMATTR InstName V1
SYMATTR Value SINE(2.5 2 1k)
SYMBOL npn 832 128 R0
SYMATTR InstName Q1
SYMATTR Value 2N3055
SYMBOL res 880 224 R0
SYMATTR InstName Speaker
SYMATTR Value 8
SYMBOL bv -224 240 R0
SYMATTR InstName B1
SYMATTR Value V=5
SYMBOL custom\\MCP4801 144 192 R0
SYMATTR InstName U2
SYMATTR SpiceLine2 Vcc=5 States=256
SYMBOL OpAmps\\LT1677 608 112 R0
SYMATTR InstName U1
SYMBOL res 448 176 R90
WINDOW 0 0 56 VBottom 2
WINDOW 3 32 56 VTop 2
SYMATTR InstName R1
SYMATTR Value 820
SYMBOL cap 496 240 R0
SYMATTR InstName C1
SYMATTR Value 10n
SYMBOL res 816 160 R90
WINDOW 0 0 56 VBottom 2
WINDOW 3 32 56 VTop 2
SYMATTR InstName Shunt
SYMATTR Value 1e-9
TEXT -48 488 Left 2 !.tran 0 0.01 0
